Version 4
SHEET 1 2164 680
WIRE 736 -32 656 -32
WIRE 800 -32 736 -32
WIRE 1056 -32 960 -32
WIRE 1184 -32 1056 -32
WIRE 1296 -32 1184 -32
WIRE 656 -16 656 -32
WIRE 736 -16 736 -32
WIRE 960 -16 960 -32
WIRE 1056 16 1056 -32
WIRE 1296 32 1296 -32
WIRE 320 80 144 80
WIRE 400 80 320 80
WIRE 496 80 480 80
WIRE 656 80 656 48
WIRE 656 80 496 80
WIRE 960 80 960 64
WIRE 1056 80 960 80
WIRE 960 96 960 80
WIRE 960 96 880 96
WIRE 736 112 736 48
WIRE 736 112 544 112
WIRE 880 112 880 96
WIRE 656 128 656 80
WIRE 736 128 736 112
WIRE 960 128 960 96
WIRE -128 160 -224 160
WIRE 48 160 -48 160
WIRE 544 160 544 112
WIRE 544 160 144 160
WIRE 656 208 656 192
WIRE 736 208 736 192
WIRE 736 208 656 208
WIRE 816 208 736 208
WIRE 1056 208 1056 144
WIRE 1056 208 960 208
WIRE 1184 208 1056 208
WIRE 1296 208 1296 112
WIRE 1296 208 1184 208
WIRE 48 240 -224 240
WIRE -224 304 -224 240
WIRE 384 368 144 368
WIRE 496 368 496 80
WIRE 496 368 464 368
WIRE 544 448 544 160
WIRE 544 448 144 448
FLAG -224 304 0
FLAG 1184 -32 V+
FLAG 1184 208 V-
FLAG 800 -32 V+
FLAG 816 208 V-
FLAG 320 80 V2
FLAG 880 112 0
SYMBOL ind2 64 256 R180
WINDOW 0 36 80 Left 2
WINDOW 3 36 40 Left 2
SYMATTR InstName L1
SYMATTR Value 23.8
SYMATTR Type ind
SYMATTR SpiceLine Rser=0
SYMBOL ind2 160 176 R180
WINDOW 0 -38 82 Left 2
WINDOW 3 -29 40 Left 2
SYMATTR InstName L2
SYMATTR Value 1
SYMATTR Type ind
SYMATTR SpiceLine Rser=0
SYMBOL voltage -224 144 R0
WINDOW 3 -207 81 Left 2
WINDOW 123 24 180 Left 2
WINDOW 39 -207 45 Left 2
SYMATTR Value SINE(0 169.7 60)
SYMATTR SpiceLine Rser=0
SYMATTR InstName V1
SYMBOL ind2 160 464 R180
WINDOW 0 -39 85 Left 2
WINDOW 3 -28 42 Left 2
SYMATTR InstName L3
SYMATTR Value 1
SYMATTR Type ind
SYMATTR SpiceLine Rser=0
SYMBOL diode 672 48 R180
WINDOW 0 41 58 Left 2
WINDOW 3 40 30 Left 2
SYMATTR InstName D1
SYMBOL diode 672 192 R180
WINDOW 0 36 34 Left 2
WINDOW 3 45 10 Left 2
SYMATTR InstName D2
SYMBOL diode 752 48 R180
WINDOW 0 24 64 Left 2
WINDOW 3 39 36 Left 2
SYMATTR InstName D3
SYMBOL diode 752 192 R180
WINDOW 0 37 37 Left 2
WINDOW 3 40 14 Left 2
SYMATTR InstName D4
SYMBOL cap 1040 16 R0
SYMATTR InstName C1
SYMATTR Value 1
SYMBOL cap 1040 80 R0
SYMATTR InstName C2
SYMATTR Value 1
SYMBOL res -32 144 R90
WINDOW 0 0 56 VBottom 2
WINDOW 3 32 56 VTop 2
SYMATTR InstName R1
SYMATTR Value 0.34
SYMBOL res 496 64 R90
WINDOW 0 0 56 VBottom 2
WINDOW 3 32 56 VTop 2
SYMATTR InstName R2
SYMATTR Value 0.04
SYMBOL res 480 352 R90
WINDOW 0 0 56 VBottom 2
WINDOW 3 32 56 VTop 2
SYMATTR InstName R3
SYMATTR Value 0.04
SYMBOL current 1296 32 R0
WINDOW 123 0 0 Left 0
WINDOW 39 0 0 Left 0
SYMATTR InstName I1
SYMATTR Value 0
SYMBOL res 944 -32 R0
SYMATTR InstName R4
SYMATTR Value 1m
SYMBOL res 944 112 R0
SYMATTR InstName R5
SYMATTR Value 1m
TEXT -128 0 Left 2 !K1 L1 L2 L3 1
TEXT -56 600 Left 2 !.tran 1
