Version 4
SHEET 1 2164 680
WIRE 496 64 416 64
WIRE 592 64 496 64
WIRE 720 64 592 64
WIRE 1872 80 1648 80
WIRE 336 112 208 112
WIRE 1648 112 1648 80
WIRE 1872 112 1872 80
WIRE 336 128 336 112
WIRE 416 128 336 128
WIRE 560 128 496 128
WIRE 592 128 560 128
WIRE 496 144 496 128
WIRE 496 144 336 144
WIRE 144 160 -16 160
WIRE 1056 176 1008 176
WIRE 1120 176 1056 176
WIRE 1456 176 1200 176
WIRE 1648 176 1600 176
WIRE 1712 176 1648 176
WIRE 336 192 336 144
WIRE 336 192 208 192
WIRE 496 192 416 192
WIRE 592 192 496 192
WIRE 720 192 592 192
WIRE 336 208 208 208
WIRE 496 208 416 208
WIRE 1456 208 1248 208
WIRE 1920 208 1600 208
WIRE 2048 208 1920 208
WIRE 144 240 -16 240
WIRE 1392 240 1344 240
WIRE 1456 240 1392 240
WIRE 1648 240 1600 240
WIRE 1776 240 1648 240
WIRE -16 256 -16 240
WIRE 336 272 336 208
WIRE 416 272 336 272
WIRE 560 272 560 128
WIRE 560 272 496 272
WIRE 1056 272 1056 176
WIRE 496 288 496 272
WIRE 496 288 208 288
WIRE 2048 288 2048 208
WIRE 496 336 416 336
WIRE 1392 352 1392 304
WIRE 1776 352 1776 304
WIRE 560 400 560 272
WIRE 1056 432 1056 352
WIRE 1248 432 1248 208
WIRE 1488 432 1248 432
WIRE 1920 432 1920 208
WIRE 1920 432 1568 432
WIRE 2048 448 2048 368
WIRE 1248 496 1248 432
WIRE 1248 608 1248 576
FLAG -16 256 0
FLAG 560 400 0
FLAG 1344 240 V+
FLAG 1712 176 V-
FLAG 1008 176 INPUT
FLAG 1776 352 0
FLAG 2048 208 OUTPUT
FLAG 1872 112 0
FLAG 2048 448 0
FLAG 1392 352 0
FLAG 1248 608 0
FLAG 720 64 V+
FLAG 720 192 V-
FLAG 1056 432 0
SYMBOL ind2 128 144 R0
WINDOW 0 -41 26 Left 2
WINDOW 3 -67 72 Left 2
SYMATTR InstName L1
SYMATTR Value 25
SYMATTR Type ind
SYMATTR SpiceLine Rser=1
SYMBOL ind2 224 208 R180
WINDOW 0 -38 82 Left 2
WINDOW 3 -29 40 Left 2
SYMATTR InstName L2
SYMATTR Value 1
SYMATTR Type ind
SYMATTR SpiceLine Rser=1
SYMBOL voltage -16 144 R0
WINDOW 3 -207 81 Left 2
WINDOW 123 24 180 Left 2
WINDOW 39 -207 45 Left 2
SYMATTR Value SINE(0 169.7 60)
SYMATTR SpiceLine Rser=0
SYMATTR InstName V1
SYMBOL ind2 224 304 R180
WINDOW 0 -39 85 Left 2
WINDOW 3 -28 42 Left 2
SYMATTR InstName L3
SYMATTR Value 1
SYMATTR Type ind
SYMBOL diode 432 128 R180
WINDOW 0 41 58 Left 2
WINDOW 3 40 30 Left 2
SYMATTR InstName D1
SYMBOL diode 432 192 R180
WINDOW 0 36 34 Left 2
WINDOW 3 45 10 Left 2
SYMATTR InstName D2
SYMBOL diode 512 128 R180
WINDOW 0 24 64 Left 2
WINDOW 3 39 36 Left 2
SYMATTR InstName D3
SYMBOL diode 512 192 R180
WINDOW 0 37 37 Left 2
WINDOW 3 40 14 Left 2
SYMATTR InstName D4
SYMBOL diode 432 272 R180
WINDOW 0 26 55 Left 2
WINDOW 3 40 33 Left 2
SYMATTR InstName D5
SYMBOL diode 432 336 R180
WINDOW 0 35 36 Left 2
WINDOW 3 45 14 Left 2
SYMATTR InstName D6
SYMBOL diode 512 272 R180
WINDOW 0 41 55 Left 2
WINDOW 3 47 26 Left 2
SYMATTR InstName D7
SYMBOL diode 512 336 R180
WINDOW 0 38 43 Left 2
WINDOW 3 41 18 Left 2
SYMATTR InstName D8
SYMBOL cap 576 64 R0
SYMATTR InstName C1
SYMATTR Value 0.1µ
SYMBOL cap 576 128 R0
SYMATTR InstName C2
SYMATTR Value 0.1µ
SYMBOL cap 1376 240 R0
SYMATTR InstName C3
SYMATTR Value 0.1µ
SYMBOL cap 1632 112 R0
SYMATTR InstName C4
SYMATTR Value 0.1µ
SYMBOL res 1216 160 R90
WINDOW 0 0 56 VBottom 2
WINDOW 3 32 56 VTop 2
SYMATTR InstName R1
SYMATTR Value 1k
SYMBOL res 1264 592 R180
WINDOW 0 36 76 Left 2
WINDOW 3 36 40 Left 2
SYMATTR InstName R2
SYMATTR Value 1k
SYMBOL res 1472 448 R270
WINDOW 0 32 56 VTop 2
WINDOW 3 0 56 VBottom 2
SYMATTR InstName R3
SYMATTR Value 20k
SYMBOL cap 1760 240 R0
SYMATTR InstName C5
SYMATTR Value 0.1µ
SYMBOL res 1632 224 R0
SYMATTR InstName R4
SYMATTR Value 100
SYMBOL res 2032 272 R0
SYMATTR InstName R5
SYMATTR Value 4
SYMBOL voltage 1056 256 R0
WINDOW 3 -216 48 Left 2
WINDOW 123 0 0 Left 2
WINDOW 39 0 0 Left 2
SYMATTR InstName V2
SYMATTR Value SINE(0 1 5000k)
SYMBOL AutoGenerated\\lm3886 1520 208 R0
SYMATTR InstName U1
TEXT 112 80 Left 2 !K1 L1 L2 L3 1
TEXT -56 600 Left 2 !.tran 10
